@<TRIPOS>MOLECULE
CM1
   10     9     1     0     0
SMALL
RESP Charge
 
 
@<TRIPOS>ATOM
      1 N          -5.8430    0.8730   32.8250 N         1 CM1     -0.415700
      2 H          -5.8980    1.8700   32.9450 H         1 CM1      0.250336
      3 CA         -5.7470    0.3420   31.4690 CX        1 CM1     -0.035100
      4 HA         -6.6580   -0.2270   31.2760 H1        1 CM1      0.061438
      5 CB         -5.6920    1.4850   30.4520 CT        1 CM1     -0.207370
      6 HB2        -6.5540    2.1370   30.5980 H1        1 CM1      0.113926
      7 HB3        -4.7790    2.0500   30.6170 H1        1 CM1      0.113926
      8 SG         -5.6780    0.8990   28.7490 Y1        1 CM1     -0.495785
      9 C          -4.5470   -0.5790   31.2610 C         1 CM1      0.597300
     10 O          -3.4050   -0.1960   31.5100 O         1 CM1     -0.567900
@<TRIPOS>BOND
     1    1    2 1
     2    1    3 1
     3    3    4 1
     4    3    5 1
     5    3    9 1
     6    5    6 1
     7    5    7 1
     8    5    8 1
     9    9   10 1
@<TRIPOS>SUBSTRUCTURE
     1 CM1         1 TEMP              0 ****  ****    0 ROOT
