@<TRIPOS>MOLECULE
FMN
   50    52     1     0     0
SMALL
resp


@<TRIPOS>ATOM
      1 P            4.2280     0.4090     0.2020 p5         1 FMN       1.336589
      2 O1P          5.3140     1.4180     0.1510 o          1 FMN      -0.881481
      3 O2P          4.3900    -0.7160     1.2270 o          1 FMN      -0.881481
      4 O3P          2.8010     0.9310     0.1780 o          1 FMN      -0.881481
      5 C5'          3.3600    -1.2530    -1.7240 c3         1 FMN       0.149784
      6 O5'          4.3630    -0.4390    -1.2500 os         1 FMN      -0.554281
      7 C4'          2.9090    -2.4480    -0.8390 c3         1 FMN       0.424508
      8 O4'          4.0160    -3.0530    -0.2480 oh         1 FMN      -0.734070
      9 C3'          1.7490    -2.2840     0.2000 c3         1 FMN       0.009741
     10 O3'          2.1420    -1.9770     1.4940 oh         1 FMN      -0.685222
     11 C2'          0.6540    -1.3080    -0.2680 c3         1 FMN       0.262941
     12 O2'         -0.0580    -1.8200    -1.3870 oh         1 FMN      -0.686132
     13 C1'         -0.3440    -1.0940     0.8650 c3         1 FMN       0.010293
     14 N1          -2.8990    -2.0530     0.5640 nc         1 FMN      -0.754087
     15 C2          -4.1180    -2.6170     0.3950 c          1 FMN       0.990130
     16 O2          -4.3820    -3.7630     0.6320 o          1 FMN      -0.680778
     17 N3          -5.1650    -1.8130    -0.0910 n          1 FMN      -0.760751
     18 C4          -5.1230    -0.4840    -0.3690 c          1 FMN       0.700736
     19 C4A         -3.7780     0.1070    -0.1320 cd         1 FMN       0.252482
     20 O4          -6.0800     0.1250    -0.7550 o          1 FMN      -0.617535
     21 C5A         -2.4080     1.9110    -0.0880 ca         1 FMN       0.499270
     22 N5          -3.6290     1.3610    -0.3040 nc         1 FMN      -0.581627
     23 C6          -2.2640     3.3000    -0.2570 ca         1 FMN      -0.456451
     24 C7          -1.0640     3.9180    -0.0730 ca         1 FMN       0.137182
     25 C7M         -0.9300     5.4110    -0.2600 c3         1 FMN      -0.309099
     26 C8           0.0600     3.1210     0.2850 ca         1 FMN       0.144036
     27 C8M          1.4250     3.7420     0.4670 c3         1 FMN      -0.201962
     28 C9          -0.0680     1.7620     0.4680 ca         1 FMN      -0.326148
     29 C9A         -1.3090     1.1290     0.2870 ca         1 FMN      -0.098926
     30 C10         -2.7100    -0.7920     0.3050 cd         1 FMN       0.360499
     31 N10         -1.4930    -0.2340     0.4680 na         1 FMN      -0.008155
     32 H04'         4.4110    -2.3730     0.3130 ho         1 FMN       0.448069
     33 H03'         2.9480    -1.4140     1.4890 ho         1 FMN       0.440993
     34 HO2'         0.4470    -1.6250    -2.1630 ho         1 FMN       0.367069
     35 HM83         2.1860     2.9710     0.5040 hc         1 FMN       0.075852
     36 HM82         1.6550     4.4170    -0.3530 hc         1 FMN       0.075852
     37 HM81         1.4530     4.3330     1.3830 hc         1 FMN       0.075852
     38 HM73        -1.8960     5.8590    -0.4700 hc         1 FMN       0.078962
     39 HM72        -0.5250     5.8900     0.6270 hc         1 FMN       0.078962
     40 HM71        -0.2640     5.6530    -1.0830 hc         1 FMN       0.078962
     41 H5'2         3.7550    -1.7140    -2.6300 h1         1 FMN      -0.021614
     42 H5'1         2.4940    -0.6650    -2.0310 h1         1 FMN      -0.021614
     43 H1'2         0.1540    -0.6270     1.6960 h1         1 FMN       0.076716
     44 H1'1        -0.7620    -2.0290     1.1850 h1         1 FMN       0.076716
     45 HN3         -6.0390    -2.2760    -0.2130 hn         1 FMN       0.370741
     46 H9           0.8300     1.2180     0.6950 ha         1 FMN       0.281214
     47 H6          -3.1450     3.8490    -0.5380 ha         1 FMN       0.205760
     48 H4'          2.5150    -3.1690    -1.5560 h1         1 FMN      -0.066585
     49 H3'          1.2750    -3.2640     0.2510 h1         1 FMN       0.071041
     50 H2'          1.1140    -0.3690    -0.5190 h1         1 FMN       0.128527
@<TRIPOS>BOND
     1     1     2 1   
     2     1     3 1   
     3     1     4 1   
     4     1     6 1   
     5     5     6 1   
     6     5     7 1   
     7     5    41 1   
     8     5    42 1   
     9     7     8 1   
    10     7     9 1   
    11     7    48 1   
    12     8    32 1   
    13     9    10 1   
    14     9    11 1   
    15     9    49 1   
    16    10    33 1   
    17    11    12 1   
    18    11    13 1   
    19    11    50 1   
    20    12    34 1   
    21    13    31 1   
    22    13    43 1   
    23    13    44 1   
    24    14    15 1   
    25    14    30 2   
    26    15    16 2   
    27    15    17 1   
    28    17    18 1   
    29    17    45 1   
    30    18    19 1   
    31    18    20 2   
    32    19    22 2   
    33    19    30 1   
    34    21    22 1   
    35    21    23 ar  
    36    21    29 ar  
    37    23    24 ar  
    38    23    47 1   
    39    24    25 1   
    40    24    26 ar  
    41    25    38 1   
    42    25    39 1   
    43    25    40 1   
    44    26    27 1   
    45    26    28 ar  
    46    27    35 1   
    47    27    36 1   
    48    27    37 1   
    49    28    29 ar  
    50    28    46 1   
    51    29    31 1   
    52    30    31 1   
@<TRIPOS>SUBSTRUCTURE
     1 FMN         1 TEMP              0 ****  ****    0 ROOT
