@<TRIPOS>MOLECULE
HM1
   72    76     1     0     0
SMALL
RESP Charge
 
 
@<TRIPOS>ATOM
      1 CHA        -9.0610   -0.2850   31.0490 ce        1 HM1     -0.039060
      2 CHB        -8.7960    4.1460   29.0620 ce        1 HM1     -0.243713
      3 CHC        -6.5140    2.2100   25.2690 ce        1 HM1     -0.303960
      4 CHD        -7.5560   -2.2780   26.8190 ce        1 HM1     -0.172728
      5 C1A        -9.1600    1.0750   30.8620 cc        1 HM1      0.002879
      6 C2A        -9.7050    2.0250   31.8140 cc        1 HM1     -0.165086
      7 C3A        -9.6310    3.2440   31.2680 cd        1 HM1      0.176549
      8 C4A        -9.0360    3.1170   29.9500 cd        1 HM1     -0.031820
      9 CMA       -10.1010    4.5580   31.9240 c3        1 HM1     -0.294917
     10 CAA       -10.2720    1.6890   33.2100 c3        1 HM1      0.086453
     11 CBA       -11.7690    1.4250   33.1010 c3        1 HM1     -0.153318
     12 CGA       -12.4320    1.4980   34.4530 c         1 HM1      0.726821
     13 O1A       -13.6650    1.2580   34.5320 o         1 HM1     -0.780854
     14 O2A       -11.7340    1.7980   35.4550 o         1 HM1     -0.743131
     15 C1B        -8.1270    4.0160   27.8650 cc        1 HM1      0.013898
     16 C2B        -7.7320    5.0950   26.9750 cc        1 HM1      0.142628
     17 C3B        -7.1090    4.5430   25.9200 cd        1 HM1     -0.165113
     18 C4B        -7.0750    3.1140   26.1310 cd        1 HM1      0.102141
     19 CMB        -8.0270    6.5900   27.2360 c3        1 HM1     -0.227604
     20 CAB        -6.4620    5.2020   24.6780 cf        1 HM1     -0.008465
     21 CBB        -6.1120    6.4900   24.6060 c2        1 HM1     -0.513784
     22 C1C        -6.5780    0.8430   25.3700 cc        1 HM1      0.129687
     23 C2C        -5.9460   -0.0720   24.4550 cc        1 HM1      0.130112
     24 C3C        -6.2070   -1.3100   24.8560 cd        1 HM1     -0.124797
     25 C4C        -7.0350   -1.2400   26.0600 cd        1 HM1      0.211875
     26 CMC        -5.1000    0.3080   23.2200 c3        1 HM1     -0.251805
     27 CAC        -5.6640   -2.5280   24.0850 cf        1 HM1     -0.067524
     28 CBC        -5.8300   -3.7640   24.5300 c2        1 HM1     -0.497586
     29 C1D        -8.0580   -2.1880   28.1080 cc        1 HM1      0.029620
     30 C2D        -8.4720   -3.2930   28.9590 cc        1 HM1      0.076098
     31 C3D        -8.9400   -2.6480   30.2710 cd        1 HM1     -0.227402
     32 C4D        -8.7620   -1.2300   30.0910 cd        1 HM1      0.077078
     33 CMD        -8.4690   -4.8040   28.6400 c3        1 HM1     -0.084425
     34 CAD        -9.4730   -3.3430   31.5400 c3        1 HM1      0.030762
     35 CBD        -8.2700   -3.8530   32.3340 c3        1 HM1     -0.139880
     36 CGD        -8.6830   -4.2760   33.7200 c         1 HM1      0.652093
     37 O1D        -8.2760   -5.3860   34.1590 o         1 HM1     -0.753853
     38 O2D        -9.4290   -3.5060   34.3790 o         1 HM1     -0.694374
     39 NA         -8.7590    1.7760   29.7370 Y2        1 HM1     -0.265232
     40 NB         -7.7070    2.8170   27.3180 Y3        1 HM1     -0.277413
     41 NC         -7.2360    0.1030   26.3370 Y4        1 HM1     -0.504390
     42 ND         -8.2480   -1.0010   28.8150 Y5        1 HM1     -0.369059
     43 HMA1      -10.8410    4.3740   32.5230 hc        1 HM1      0.069498
     44 HMA2      -10.3890    5.1780   31.2360 hc        1 HM1      0.069498
     45 HMA3       -9.3690    4.9490   32.4260 hc        1 HM1      0.069498
     46 HMB1       -8.8490    6.6740   27.7450 hc        1 HM1      0.055180
     47 HMB2       -8.1220    7.0540   26.3890 hc        1 HM1      0.055180
     48 HMB3       -7.2950    6.9820   27.7380 hc        1 HM1      0.055180
     49 HMC1       -4.4330   -0.3780   23.0610 hc        1 HM1      0.055375
     50 HMC2       -4.6580    1.1570   23.3790 hc        1 HM1      0.055375
     51 HMC3       -5.6770    0.3840   22.4440 hc        1 HM1      0.055375
     52 HMD1       -8.3320   -5.3070   29.4580 hc        1 HM1      0.022858
     53 HMD2       -7.7540   -5.0020   28.0150 hc        1 HM1      0.022858
     54 HMD3       -9.3200   -5.0530   28.2460 hc        1 HM1      0.022858
     55 HBB1       -5.7100    6.8390   23.7950 ha        1 HM1      0.162723
     56 HBB2       -6.2600    7.0760   25.3650 ha        1 HM1      0.162723
     57 HBC1       -5.4780   -4.5130   24.0240 ha        1 HM1      0.174261
     58 HBC2       -6.3040   -3.9200   25.3620 ha        1 HM1      0.174261
     59 HBA1      -11.9190    0.5500   32.7110 hc        1 HM1      0.018163
     60 HBA2      -12.1720    2.0740   32.5040 hc        1 HM1      0.018163
     61 HAA1      -10.1070    2.4230   33.8220 hc        1 HM1      0.021655
     62 HAA2       -9.8220    0.9100   33.5730 hc        1 HM1      0.021655
     63 HBD1       -7.5960   -3.1570   32.3910 hc        1 HM1      0.036295
     64 HBD2       -7.8650   -4.6020   31.8700 hc        1 HM1      0.036295
     65 HAD1      -10.0610   -4.0780   31.3040 hc        1 HM1      0.027922
     66 HAD2       -9.9940   -2.7230   32.0740 hc        1 HM1      0.027922
     67 HHA        -9.2110   -0.5990   31.9110 ha        1 HM1      0.177460
     68 HHB        -9.1100    4.9910   29.2890 ha        1 HM1      0.161732
     69 HHC        -6.0440    2.5560   24.5450 ha        1 HM1      0.173610
     70 HHD        -7.5700   -3.1190   26.4230 ha        1 HM1      0.078646
     71 HAB        -6.3000    4.6440   23.9010 ha        1 HM1      0.099646
     72 HAC        -5.1880   -2.3860   23.2520 ha        1 HM1      0.126660
@<TRIPOS>BOND
     1    1    5 1
     2    1   32 1
     3    1   67 1
     4    2    8 1
     5    2   15 1
     6    2   68 1
     7    3   18 1
     8    3   22 1
     9    3   69 1
    10    4   25 1
    11    4   29 1
    12    4   70 1
    13    5    6 1
    14    5   39 1
    15    6    7 1
    16    6   10 1
    17    7    8 1
    18    7    9 1
    19    8   39 1
    20    9   43 1
    21    9   44 1
    22    9   45 1
    23   10   11 1
    24   10   61 1
    25   10   62 1
    26   11   12 1
    27   11   59 1
    28   11   60 1
    29   12   13 1
    30   12   14 1
    31   15   16 1
    32   15   40 1
    33   16   17 1
    34   16   19 1
    35   17   18 1
    36   17   20 1
    37   18   40 1
    38   19   46 1
    39   19   47 1
    40   19   48 1
    41   20   21 1
    42   20   71 1
    43   21   55 1
    44   21   56 1
    45   22   23 1
    46   22   41 1
    47   23   24 1
    48   23   26 1
    49   24   25 1
    50   24   27 1
    51   25   41 1
    52   26   49 1
    53   26   50 1
    54   26   51 1
    55   27   28 1
    56   27   72 1
    57   28   57 1
    58   28   58 1
    59   29   30 1
    60   29   42 1
    61   30   31 1
    62   30   33 1
    63   31   32 1
    64   31   34 1
    65   32   42 1
    66   33   52 1
    67   33   53 1
    68   33   54 1
    69   34   35 1
    70   34   65 1
    71   34   66 1
    72   35   36 1
    73   35   63 1
    74   35   64 1
    75   36   37 1
    76   36   38 1
@<TRIPOS>SUBSTRUCTURE
     1 HM1         1 TEMP              0 ****  ****    0 ROOT
