@<TRIPOS>MOLECULE
FMN
   50    52     1     0     0
SMALL
resp


@<TRIPOS>ATOM
      1 P            6.0920    -0.1490    -0.7390 p5         1 FMN       1.380987
      2 O1P          7.0550    -0.7740    -1.6960 o          1 FMN      -0.931438
      3 O2P          6.1660    -0.6810     0.6960 o          1 FMN      -0.931438
      4 O3P          5.8950     1.3380    -0.8170 o          1 FMN      -0.931438
      5 C5'          3.4310    -0.4080    -0.5980 c3         1 FMN       0.192368
      6 O5'          4.5780    -0.8040    -1.2530 os         1 FMN      -0.608075
      7 C4'          3.0020    -1.4560     0.4390 c3         1 FMN       0.321223
      8 O4'          3.8960    -1.5150     1.5090 oh         1 FMN      -0.774819
      9 C3'          1.6330    -1.2170     1.1110 c3         1 FMN      -0.043461
     10 O3'          1.7410    -0.1100     1.9800 oh         1 FMN      -0.705790
     11 C2'          0.4270    -0.9700     0.1990 c3         1 FMN       0.315176
     12 O2'          0.3040    -1.9790    -0.7770 oh         1 FMN      -0.685688
     13 C1'         -0.8580    -0.9860     1.0370 c3         1 FMN      -0.024388
     14 N1          -3.1890    -2.3040     0.4620 nc         1 FMN      -0.769532
     15 C2          -4.2830    -3.0350     0.1840 c          1 FMN       0.999196
     16 O2          -4.4290    -4.2080     0.4720 o          1 FMN      -0.770756
     17 N3          -5.3270    -2.4010    -0.4740 n          1 FMN      -0.765878
     18 C4          -5.4010    -1.0710    -0.8380 c          1 FMN       0.719170
     19 C4A         -4.2200    -0.3280    -0.5000 cd         1 FMN      -0.026073
     20 O4          -6.4120    -0.6650    -1.3810 o          1 FMN      -0.708135
     21 C5A         -3.1230     1.6930    -0.3510 ca         1 FMN       0.616889
     22 N5          -4.1980     1.0150    -0.7780 nc         1 FMN      -0.646904
     23 C6          -3.1000     3.1010    -0.5260 ca         1 FMN      -0.495118
     24 C7          -2.0580     3.8960    -0.0690 ca         1 FMN       0.179084
     25 C7M         -2.0860     5.3910    -0.2900 c3         1 FMN      -0.253605
     26 C8          -0.9780     3.2750     0.6000 ca         1 FMN       0.068828
     27 C8M          0.1910     4.0800     1.1200 c3         1 FMN      -0.329318
     28 C9          -0.9790     1.8820     0.7750 ca         1 FMN      -0.325724
     29 C9A         -2.0140     1.0740     0.2960 ca         1 FMN      -0.205539
     30 C10         -3.1640    -1.0270     0.1250 cd         1 FMN       0.285107
     31 N10         -2.0140    -0.3230     0.4290 na         1 FMN       0.056950
     32 HO4'         4.8160    -1.2330     1.2060 ho         1 FMN       0.487624
     33 HO3'         2.6530    -0.1350     2.2630 ho         1 FMN       0.457467
     34 HO2'         1.0500    -1.9220    -1.3590 ho         1 FMN       0.401997
     35 HM83         0.6760     4.6440     0.3270 hc         1 FMN       0.095028
     36 HM82        -0.1170     4.7980     1.8800 hc         1 FMN       0.095028
     37 HM81         0.9400     3.4320     1.5570 hc         1 FMN       0.095028
     38 HM73        -1.2420     5.7270    -0.8880 hc         1 FMN       0.056257
     39 HM72        -2.9940     5.6870    -0.8060 hc         1 FMN       0.056257
     40 HM71        -2.0460     5.9410     0.6490 hc         1 FMN       0.056257
     41 H5'2         2.6310    -0.2950    -1.3410 h1         1 FMN       0.009931
     42 H5'1         3.5520     0.5600    -0.1210 h1         1 FMN       0.009931
     43 H1'2        -0.6620    -0.5260     1.9970 h1         1 FMN       0.065041
     44 H1'1        -1.1360    -2.0110     1.2020 h1         1 FMN       0.065041
     45 HN3         -6.1260    -2.9590    -0.6730 hn         1 FMN       0.348135
     46 H9          -0.1380     1.4440     1.2740 ha         1 FMN       0.238862
     47 H6          -3.9470     3.5330    -1.0290 ha         1 FMN       0.178514
     48 H4'          2.9620    -2.4190    -0.0740 h1         1 FMN      -0.025770
     49 H3'          1.4260    -2.1110     1.7010 h1         1 FMN       0.086943
     50 H2'          0.5520    -0.0110    -0.2860 h1         1 FMN       0.020570
@<TRIPOS>BOND
     1     1     2 1   
     2     1     3 1   
     3     1     4 1   
     4     1     6 1   
     5     5     6 1   
     6     5     7 1   
     7     5    41 1   
     8     5    42 1   
     9     7     8 1   
    10     7     9 1   
    11     7    48 1   
    12     8    32 1   
    13     9    10 1   
    14     9    11 1   
    15     9    49 1   
    16    10    33 1   
    17    11    12 1   
    18    11    13 1   
    19    11    50 1   
    20    12    34 1   
    21    13    31 1   
    22    13    43 1   
    23    13    44 1   
    24    14    15 1   
    25    14    30 2   
    26    15    16 2   
    27    15    17 1   
    28    17    18 1   
    29    17    45 1   
    30    18    19 1   
    31    18    20 2   
    32    19    22 2   
    33    19    30 1   
    34    21    22 1   
    35    21    23 ar  
    36    21    29 ar  
    37    23    24 ar  
    38    23    47 1   
    39    24    25 1   
    40    24    26 ar  
    41    25    38 1   
    42    25    39 1   
    43    25    40 1   
    44    26    27 1   
    45    26    28 ar  
    46    27    35 1   
    47    27    36 1   
    48    27    37 1   
    49    28    29 ar  
    50    28    46 1   
    51    29    31 1   
    52    30    31 1   
@<TRIPOS>SUBSTRUCTURE
     1 FMN         1 TEMP              0 ****  ****    0 ROOT
